
**** 06/18/21 15:11:19 ******* PSpice 17.4.0 (Nov 2018) ******* ID# 0 ********

 ** Profile: "SCHEMATIC1-transient"  [ C:\Users\a0232292\Desktop\Models\TLV9062\PSpice_nano\TLV9062-PSpiceFiles\SCHEMATIC1\transient.


 ****     CIRCUIT DESCRIPTION


******************************************************************************




** Creating circuit file "transient.cir" 
** WARNING: THIS AUTOMATICALLY GENERATED FILE MAY BE OVERWRITTEN BY SUBSEQUENT SIMULATIONS

*Libraries: 
* Profile Libraries :
* Local Libraries :
.LIB "C:/Users/a0232292/Desktop/Models/Fixed_PSpice/Round2/name_reverted/TLV9062.LIB" 
* From [PSPICE NETLIST] section of C:\SPB_Data\cdssetup\OrCAD_PSpiceTIPSpice_Install\17.4.0\PSpice.ini file:
.lib "nom_pspti.lib" 
.lib "nom.lib" 

*Analysis directives: 
.TRAN  0 1m 0 
.OPTIONS ADVCONV
.OPTIONS FILEMODELSEARCH
.PROBE64 V(alias(*)) I(alias(*)) W(alias(*)) D(alias(*)) NOISE(alias(*)) 
.INC "..\SCHEMATIC1.net" 



**** INCLUDING SCHEMATIC1.net ****
* source TLV9062
V_V1         VCC 0 2.75
V_V2         0 VEE 2.75
X_U1         VIN VO VCC VEE VO TLV9062
V_V3         VIN 0  
+SIN 0 1 1k 0 0 0

**** RESUMING transient.cir ****
.END

INFO(ORPSIM-15423): Unable to find index file TLV9062.ind for library file TLV9062.LIB.

INFO(ORPSIM-15422): Making new index file TLV9062.ind for library file TLV9062.LIB.

Index has 17 entries from 1 file(s).

**** 06/18/21 15:11:19 ******* PSpice 17.4.0 (Nov 2018) ******* ID# 0 ********

 ** Profile: "SCHEMATIC1-transient"  [ C:\Users\a0232292\Desktop\Models\TLV9062\PSpice_nano\TLV9062-PSpiceFiles\SCHEMATIC1\transient.


 ****     Diode MODEL PARAMETERS


******************************************************************************




               X_U1.Xi_nn.DVNF X_U1.Xi_np.DVNF X_U1.Xe_n.DVN   
          IS  100.000000E-18  100.000000E-18  100.000000E-18 
          KF  316.227800E-15  316.227800E-15   31.622780E-12 


**** 06/18/21 15:11:19 ******* PSpice 17.4.0 (Nov 2018) ******* ID# 0 ********

 ** Profile: "SCHEMATIC1-transient"  [ C:\Users\a0232292\Desktop\Models\TLV9062\PSpice_nano\TLV9062-PSpiceFiles\SCHEMATIC1\transient.


 ****     Resistor MODEL PARAMETERS


******************************************************************************




               X_U1.R_NOISELESS 
  T_Measured   27            
   T_Current -273.15         
           R    1            


**** 06/18/21 15:11:19 ******* PSpice 17.4.0 (Nov 2018) ******* ID# 0 ********

 ** Profile: "SCHEMATIC1-transient"  [ C:\Users\a0232292\Desktop\Models\TLV9062\PSpice_nano\TLV9062-PSpiceFiles\SCHEMATIC1\transient.


 ****     Voltage Controlled Switch MODEL PARAMETERS


******************************************************************************




               X_U1.BB_SW      X_U1.ESD_SW     X_U1.OL_SW      X_U1.OR_SW      
         RON   50              50               1.000000E-03     .01         
        ROFF    1.000000E+12    1.000000E+12    1.000000E+09    1.000000E+09 
         VON     .7              .25             .9             1.000000E-03 
        VOFF    0               0                .8             0            


               X_U1.S_VSWITCH_1 
         RON   50            
        ROFF    1.000000E+12 
         VON     .5          
        VOFF     .1          


               X_U1.S_VSWITCH_2 
         RON   50            
        ROFF    1.000000E+12 
         VON     .5          
        VOFF     .1          


               X_U1.S_VSWITCH_3 
         RON   50            
        ROFF    1.000000E+12 
         VON     .5          
        VOFF     .1          


               X_U1.S_VSWITCH_4 
         RON   50            
        ROFF    1.000000E+12 
         VON     .5          
        VOFF     .1          


               X_U1.S_VSWITCH_5 
         RON     .01         
        ROFF    1.000000E+12 
         VON     .01         
        VOFF    0            


               X_U1.S_VSWITCH_6 
         RON     .01         
        ROFF    1.000000E+12 
         VON     .01         
        VOFF    0            


               X_U1.S_VSWITCH_7 
         RON    1.000000E-03 
        ROFF    1.000000E+12 
         VON     .5          
        VOFF     .1          


               X_U1.S_VSWITCH_8 
         RON   50            
        ROFF    1.000000E+12 
         VON     .5          
        VOFF     .1          


               X_U1.S_VSWITCH_9 
         RON   50            
        ROFF    1.000000E+12 
         VON     .5          
        VOFF     .1          


ERROR(ORPSIM-16583): Detected an imported model containing transistors or diodes. For such models, PSpice for TI supports a minimum of one and maximum of three traces. Reduce the number of traces and simulate again.


ABORTING SIMULATION
**** 06/18/21 15:11:19 ******* PSpice 17.4.0 (Nov 2018) ******* ID# 0 ********

 ** Profile: "SCHEMATIC1-transient"  [ C:\Users\a0232292\Desktop\Models\TLV9062\PSpice_nano\TLV9062-PSpiceFiles\SCHEMATIC1\transient.


 ****     JOB STATISTICS SUMMARY


******************************************************************************



Node counts:
  Top level (NUNODS)                =           4
  External (NCNODS)                 =         108
  Total (NUMNOD)                    =         108

Total device count (NUMEL)          =         232
  Capacitors (C)                    =          32
  Diodes (D)                        =           6
  VCVS (E)                          =          12
  VCCS (G)                          =          40
  CCVS (H)                          =           3
  Current Sources (I)               =           9
  Resistors (R)                     =         106
  VSwitches (S)                     =           9
  Voltage Sources (V)               =          15

Number of subcircuits (X)           =          20

Matrix statistics:
  Matrix size (NSTOP)               =         138
  Initial no. elements (NTTAR)      =         549
  No. elements w/ fillin (NTTBR)    =         549
  No. fillins (IFILL)               =           0
  No. overflows (NTTOV)             =           0
  No. LU operations (IOPS)          =           0
  Percent sparsity (PERSPA)         =      97.117

Analysis statistics:
  No. total time points (NUMTTP)    =           0
  No. rejected time points (NUMRTP) =           0
  No. iterations (NUMNIT)           =           0

Load Threads                        =           1

Runtime statistics:                       Seconds      Iterations
  Matrix load                       =        0.00
  Matrix solution                   =        0.00               1
  Readin                            =        1.47
  General setup                     =        0.00
  CMI setup                     =        0.00
  Setup                             =        0.00
  DC sweep                          =        0.00               0
  Bias point                        =        0.00               0
  AC and noise                      =        0.00               0
  Total transient analysis          =        0.00
  Output                            =        0.00
  Overhead                          =         .06
  Total job time (using Solver 1)   =        1.47
